<nodes>   
	<node id="A" x="116.30042700" y="0.00452177" type="priority"/>
	<node id="B" x="116.30491850" y="0.00452177" type="priority"/>
	<node id="C" x="116.30941000" y="0.00452177" type="priority"/>
	<node id="D" x="116.31390150" y="0.00452177" type="priority"/>
	<node id="E" x="116.31839300" y="0.00452177" type="priority"/>
	<node id="F" x="116.31839300" y="0.00000000" type="priority"/>
	<node id="G" x="116.31839300" y="-0.00452177" type="priority"/>
	<node id="H" x="116.31390150" y="-0.00452177" type="priority"/>
	<node id="I" x="116.30941000" y="-0.00452177" type="priority"/>
	<node id="J" x="116.30491850" y="-0.00452177" type="priority"/>
	<node id="K" x="116.30042700" y="-0.00452177" type="priority"/>
	<node id="L" x="116.30042700" y="0.00000000" type="priority"/>
	<node id="M" x="116.30941000" y="0.00000000" type="priority"/>
	<node id="N" x="116.30491850" y="0.00000000" type="priority"/>
	<node id="O" x="116.31390150" y="0.00000000" type="priority"/>

	<node id="P" x="116.30222360" y="0.00271306" type="priority"/>
	<node id="Q" x="116.30671510" y="0.00271306" type="priority"/>
	<node id="R" x="116.30671510" y="-0.00271306" type="priority"/>
	<node id="S" x="116.30222360" y="-0.00271306" type="priority"/>

	<node id="T" x="116.30761340" y="0.00271306" type="priority"/>
	<node id="U" x="116.31120660" y="0.00271306" type="priority"/>
	<node id="V" x="116.31120660" y="-0.00271306" type="priority"/>
	<node id="W" x="116.30761340" y="-0.00271306" type="priority"/>

	<node id="X" x="116.31210490" y="0.00271306" type="priority"/>
	<node id="Y" x="116.31659640" y="0.00271306" type="priority"/>
	<node id="Z" x="116.31659640" y="-0.00271306" type="priority"/>
	<node id="A1" x="116.31210490" y="-0.00271306" type="priority"/>
</nodes>

